LTspice 24.0.9 for Windows
Circuit: * C:\Users\deloy\iCloudDrive\Fontys\S7\Project\Warbrug element\Warbrug element 5 stage.asc
Start Time: Mon Jan 27 12:47:11 2025
solver = Normal
Maximum thread count: 16
tnom = 27
temp = 27
method = modified trap
.OP point found by inspection.
Total elapsed time: 0.054 seconds.

