Circuit: * C:\Fontys\randle circuit 2 alt.asc


Date: Wed Jan 08 11:05:01 2025
Total elapsed time: 0.016 seconds.

tnom = 27
temp = 27
method = trap
totiter = 0
traniter = 0
tranpoints = 0
accept = 0
rejected = 0
matrix size = 4
fillins = 0
solver = Normal

