Circuit: * C:\Fontys\Randle circuit 1 alt.asc


Date: Wed Jan 22 11:41:10 2025
Total elapsed time: 0.062 seconds.

tnom = 27
temp = 27
method = trap
totiter = 0
traniter = 0
tranpoints = 0
accept = 0
rejected = 0
matrix size = 3
fillins = 0
solver = Normal

